Circuit: * C:\Users\iantr\Desktop\Root\Lab\LTSpice\Projects\MFOS Noise Toaster\MFOS Noise Toaster - No WNS (NORMAL)\Draft1.asc


Date: Mon Apr 11 17:43:07 2022
Total elapsed time: 0.018 seconds.

tnom = 27
temp = 27
method = trap
totiter = 0
traniter = 0
tranpoints = 0
accept = 0
rejected = 0
matrix size = 4
fillins = 0
solver = Normal

