Circuit: * C:\Users\iantr\Desktop\Root\Lab\LTSpice\Projects\MFOS Noise Toaster\MFOS Noise Toaster - No WNS (NORMAL)\MFOS Noise Toaster - No WNS (NORMAL).asc

Warning: Multiple definitions of model "j2n5457" Type: JFET
R26: both pins shorted together -- ignoring.
R28: both pins shorted together -- ignoring.
R36: both pins shorted together -- ignoring.
R38: both pins shorted together -- ignoring.
R58: both pins shorted together -- ignoring.
WARNING: Less than two connections to node FIL.  This node is used by B1.
Direct Newton iteration failed to find .op point.  (Use ".option noopiter" to skip.)
Starting Gmin stepping
Gmin = 10
Gmin = 1.07374
Gmin = 0.115292
Gmin = 0.0123794
Gmin = 0.00132923
vernier = 0.5
vernier = 0.25
vernier = 0.125
vernier = 0.0625
Gmin = 0.00100083
vernier = 0.03125
vernier = 0.015625
vernier = 0.0078125
vernier = 0.00390625
vernier = 0.00195313
Gmin = 0.00100083
vernier = 0.000976563
vernier = 0.000488281
Gmin = 0
Gmin stepping succeeded in finding the operating point.

Heightened Def Con from 1.45645e-009 to 6.45645e-009
Heightened Def Con from 2.26088e-007 to 2.32088e-007
Heightened Def Con from 6.38438e-007 to 6.43438e-007

Date: Wed Feb 23 10:52:47 2022
Total elapsed time: 154.018 seconds.

tnom = 27
temp = 27
method = modified trap
totiter = 5854967
traniter = 5853429
tranpoints = 1866241
accept = 1261354
rejected = 604890
matrix size = 317
fillins = 593
solver = Normal
Thread vector: 19.1/9.3[6] 11.0/4.0[6] 5.4/3.6[6] 0.8/1.0[1]  2592/500
Matrix Compiler1: 53.55 KB object code size  9.8/4.4/[3.3]
Matrix Compiler2: 37.69 KB object code size  2.3/2.9/[1.9]

